Version 4
SHEET 1 880 680
WIRE 176 32 48 32
WIRE 320 32 256 32
WIRE 352 32 320 32
WIRE 496 32 432 32
WIRE 48 128 48 32
WIRE 496 128 496 32
WIRE 48 144 48 128
WIRE 48 208 48 192
WIRE 48 256 48 208
WIRE 288 256 48 256
WIRE 496 256 496 208
WIRE 496 256 288 256
WIRE 288 272 288 256
FLAG 288 272 0
FLAG 320 32 A
SYMBOL voltage 48 112 R0
SYMATTR InstName Vth
SYMATTR Value 10.093
SYMBOL voltage 496 112 R0
SYMATTR InstName Vs
SYMATTR Value 0
SYMBOL res 272 16 R90
WINDOW 0 0 56 VBottom 2
WINDOW 3 32 56 VTop 2
SYMATTR InstName Rth
SYMATTR Value 2.9306k
SYMBOL res 448 16 R90
WINDOW 0 0 56 VBottom 2
WINDOW 3 32 56 VTop 2
SYMATTR InstName R2
SYMATTR Value 1k
TEXT 376 280 Left 2 !.dc Vs -10 20 0.1
