Version 4
SHEET 1 880 680
WIRE 176 32 48 32
WIRE 416 32 256 32
WIRE 496 32 416 32
WIRE 48 128 48 32
WIRE 496 128 496 32
WIRE 48 256 48 208
WIRE 288 256 48 256
WIRE 496 256 496 208
WIRE 496 256 288 256
WIRE 288 272 288 256
FLAG 288 272 0
FLAG 416 32 VL
SYMBOL voltage 48 112 R0
SYMATTR InstName Vth
SYMATTR Value 10.0939
SYMBOL res 272 16 R90
WINDOW 0 0 56 VBottom 2
WINDOW 3 32 56 VTop 2
SYMATTR InstName Rth
SYMATTR Value 2.9306k
SYMBOL res 480 112 R0
SYMATTR InstName RL
SYMATTR Value {R}
TEXT 368 272 Left 2 !.step param R 200 20k 100
TEXT 48 272 Left 2 !.op
