Version 4
SHEET 1 880 680
WIRE 192 64 80 64
WIRE 384 64 256 64
WIRE 80 144 80 64
WIRE 384 144 384 64
WIRE 80 272 80 224
WIRE 240 272 80 272
WIRE 384 272 384 224
WIRE 384 272 240 272
WIRE 240 304 240 272
FLAG 240 304 0
FLAG 80 64 in
FLAG 384 64 out
SYMBOL voltage 80 128 R0
WINDOW 123 0 0 Left 0
WINDOW 39 0 0 Left 0
SYMATTR InstName V1
SYMATTR Value SINE(0 5 500)
SYMBOL res 368 128 R0
SYMATTR InstName R1
SYMATTR Value 220
SYMBOL cap 256 48 R90
WINDOW 0 0 32 VBottom 2
WINDOW 3 32 32 VTop 2
SYMATTR InstName C1
SYMATTR Value 1µ
TEXT 352 296 Left 2 !.tran 0 8ms 0 1us
